
---------- Begin Simulation Statistics ----------
simSeconds                                   0.000260                       # Number of seconds simulated (Second)
simTicks                                    259546750                       # Number of ticks simulated (Tick)
finalTick                                  2477118000                       # Number of ticks from beginning of simulation (restored from checkpoints and never reset) (Tick)
simFreq                                  1000000000000                       # The number of ticks per simulated second ((Tick/Second))
hostSeconds                                      2.47                       # Real time elapsed on the host (Second)
hostTickRate                                105255095                       # The number of ticks simulated per host second (ticks/s) ((Tick/Second))
hostMemory                                    4369612                       # Number of bytes of host memory used (Byte)
simInsts                                      1335421                       # Number of instructions simulated (Count)
simOps                                        2461357                       # Number of ops (including micro ops) simulated (Count)
hostInstRate                                   541540                       # Simulator instruction rate (inst/s) ((Count/Second))
hostOpRate                                     998127                       # Simulator op (including micro ops) rate (op/s) ((Count/Second))
system.clk_domain.clock                           333                       # Clock period in ticks (Tick)
system.cpu.numCycles                                0                       # Number of cpu cycles simulated (Cycle)
system.cpu.cpi                                    nan                       # CPI: cycles per instruction (core level) ((Cycle/Count))
system.cpu.ipc                                    nan                       # IPC: instructions per cycle (core level) ((Count/Cycle))
system.cpu.numWorkItemsStarted                      0                       # Number of work items this cpu started (Count)
system.cpu.numWorkItemsCompleted                    0                       # Number of work items this cpu completed (Count)
system.cpu.commitStats0.numOps                      0                       # Number of ops (including micro ops) committed (thread level) (Count)
system.cpu.commitStats0.numInstsNotNOP              0                       # Number of instructions committed excluding NOPs or prefetches (Count)
system.cpu.commitStats0.numOpsNotNOP                0                       # Number of Ops (including micro ops) Simulated (Count)
system.cpu.commitStats0.cpi                       nan                       # CPI: cycles per instruction (thread level) ((Cycle/Count))
system.cpu.commitStats0.ipc                       nan                       # IPC: instructions per cycle (thread level) ((Count/Cycle))
system.cpu.commitStats0.numMemRefs                  0                       # Number of memory references committed (Count)
system.cpu.commitStats0.numFpInsts                  0                       # Number of float instructions (Count)
system.cpu.commitStats0.numIntInsts                 0                       # Number of integer instructions (Count)
system.cpu.commitStats0.numLoadInsts                0                       # Number of load instructions (Count)
system.cpu.commitStats0.numStoreInsts               0                       # Number of store instructions (Count)
system.cpu.commitStats0.numVecInsts                 0                       # Number of vector instructions (Count)
system.cpu.commitStats0.committedInstType::No_OpClass            0                       # Class of committed instruction. (Count)
system.cpu.commitStats0.committedInstType::IntAlu            0                       # Class of committed instruction. (Count)
system.cpu.commitStats0.committedInstType::IntMult            0                       # Class of committed instruction. (Count)
system.cpu.commitStats0.committedInstType::IntDiv            0                       # Class of committed instruction. (Count)
system.cpu.commitStats0.committedInstType::FloatAdd            0                       # Class of committed instruction. (Count)
system.cpu.commitStats0.committedInstType::FloatCmp            0                       # Class of committed instruction. (Count)
system.cpu.commitStats0.committedInstType::FloatCvt            0                       # Class of committed instruction. (Count)
system.cpu.commitStats0.committedInstType::FloatMult            0                       # Class of committed instruction. (Count)
system.cpu.commitStats0.committedInstType::FloatMultAcc            0                       # Class of committed instruction. (Count)
system.cpu.commitStats0.committedInstType::FloatDiv            0                       # Class of committed instruction. (Count)
system.cpu.commitStats0.committedInstType::FloatMisc            0                       # Class of committed instruction. (Count)
system.cpu.commitStats0.committedInstType::FloatSqrt            0                       # Class of committed instruction. (Count)
system.cpu.commitStats0.committedInstType::SimdAdd            0                       # Class of committed instruction. (Count)
system.cpu.commitStats0.committedInstType::SimdAddAcc            0                       # Class of committed instruction. (Count)
system.cpu.commitStats0.committedInstType::SimdAlu            0                       # Class of committed instruction. (Count)
system.cpu.commitStats0.committedInstType::SimdCmp            0                       # Class of committed instruction. (Count)
system.cpu.commitStats0.committedInstType::SimdCvt            0                       # Class of committed instruction. (Count)
system.cpu.commitStats0.committedInstType::SimdMisc            0                       # Class of committed instruction. (Count)
system.cpu.commitStats0.committedInstType::SimdMult            0                       # Class of committed instruction. (Count)
system.cpu.commitStats0.committedInstType::SimdMultAcc            0                       # Class of committed instruction. (Count)
system.cpu.commitStats0.committedInstType::SimdMatMultAcc            0                       # Class of committed instruction. (Count)
system.cpu.commitStats0.committedInstType::SimdShift            0                       # Class of committed instruction. (Count)
system.cpu.commitStats0.committedInstType::SimdShiftAcc            0                       # Class of committed instruction. (Count)
system.cpu.commitStats0.committedInstType::SimdDiv            0                       # Class of committed instruction. (Count)
system.cpu.commitStats0.committedInstType::SimdSqrt            0                       # Class of committed instruction. (Count)
system.cpu.commitStats0.committedInstType::SimdFloatAdd            0                       # Class of committed instruction. (Count)
system.cpu.commitStats0.committedInstType::SimdFloatAlu            0                       # Class of committed instruction. (Count)
system.cpu.commitStats0.committedInstType::SimdFloatCmp            0                       # Class of committed instruction. (Count)
system.cpu.commitStats0.committedInstType::SimdFloatCvt            0                       # Class of committed instruction. (Count)
system.cpu.commitStats0.committedInstType::SimdFloatDiv            0                       # Class of committed instruction. (Count)
system.cpu.commitStats0.committedInstType::SimdFloatMisc            0                       # Class of committed instruction. (Count)
system.cpu.commitStats0.committedInstType::SimdFloatMult            0                       # Class of committed instruction. (Count)
system.cpu.commitStats0.committedInstType::SimdFloatMultAcc            0                       # Class of committed instruction. (Count)
system.cpu.commitStats0.committedInstType::SimdFloatMatMultAcc            0                       # Class of committed instruction. (Count)
system.cpu.commitStats0.committedInstType::SimdFloatSqrt            0                       # Class of committed instruction. (Count)
system.cpu.commitStats0.committedInstType::SimdReduceAdd            0                       # Class of committed instruction. (Count)
system.cpu.commitStats0.committedInstType::SimdReduceAlu            0                       # Class of committed instruction. (Count)
system.cpu.commitStats0.committedInstType::SimdReduceCmp            0                       # Class of committed instruction. (Count)
system.cpu.commitStats0.committedInstType::SimdFloatReduceAdd            0                       # Class of committed instruction. (Count)
system.cpu.commitStats0.committedInstType::SimdFloatReduceCmp            0                       # Class of committed instruction. (Count)
system.cpu.commitStats0.committedInstType::SimdAes            0                       # Class of committed instruction. (Count)
system.cpu.commitStats0.committedInstType::SimdAesMix            0                       # Class of committed instruction. (Count)
system.cpu.commitStats0.committedInstType::SimdSha1Hash            0                       # Class of committed instruction. (Count)
system.cpu.commitStats0.committedInstType::SimdSha1Hash2            0                       # Class of committed instruction. (Count)
system.cpu.commitStats0.committedInstType::SimdSha256Hash            0                       # Class of committed instruction. (Count)
system.cpu.commitStats0.committedInstType::SimdSha256Hash2            0                       # Class of committed instruction. (Count)
system.cpu.commitStats0.committedInstType::SimdShaSigma2            0                       # Class of committed instruction. (Count)
system.cpu.commitStats0.committedInstType::SimdShaSigma3            0                       # Class of committed instruction. (Count)
system.cpu.commitStats0.committedInstType::SimdPredAlu            0                       # Class of committed instruction. (Count)
system.cpu.commitStats0.committedInstType::Matrix            0                       # Class of committed instruction. (Count)
system.cpu.commitStats0.committedInstType::MatrixMov            0                       # Class of committed instruction. (Count)
system.cpu.commitStats0.committedInstType::MatrixOP            0                       # Class of committed instruction. (Count)
system.cpu.commitStats0.committedInstType::MemRead            0                       # Class of committed instruction. (Count)
system.cpu.commitStats0.committedInstType::MemWrite            0                       # Class of committed instruction. (Count)
system.cpu.commitStats0.committedInstType::FloatMemRead            0                       # Class of committed instruction. (Count)
system.cpu.commitStats0.committedInstType::FloatMemWrite            0                       # Class of committed instruction. (Count)
system.cpu.commitStats0.committedInstType::IprAccess            0                       # Class of committed instruction. (Count)
system.cpu.commitStats0.committedInstType::InstPrefetch            0                       # Class of committed instruction. (Count)
system.cpu.commitStats0.committedInstType::SimdUnitStrideLoad            0                       # Class of committed instruction. (Count)
system.cpu.commitStats0.committedInstType::SimdUnitStrideStore            0                       # Class of committed instruction. (Count)
system.cpu.commitStats0.committedInstType::SimdUnitStrideMaskLoad            0                       # Class of committed instruction. (Count)
system.cpu.commitStats0.committedInstType::SimdUnitStrideMaskStore            0                       # Class of committed instruction. (Count)
system.cpu.commitStats0.committedInstType::SimdStridedLoad            0                       # Class of committed instruction. (Count)
system.cpu.commitStats0.committedInstType::SimdStridedStore            0                       # Class of committed instruction. (Count)
system.cpu.commitStats0.committedInstType::SimdIndexedLoad            0                       # Class of committed instruction. (Count)
system.cpu.commitStats0.committedInstType::SimdIndexedStore            0                       # Class of committed instruction. (Count)
system.cpu.commitStats0.committedInstType::SimdWholeRegisterLoad            0                       # Class of committed instruction. (Count)
system.cpu.commitStats0.committedInstType::SimdWholeRegisterStore            0                       # Class of committed instruction. (Count)
system.cpu.commitStats0.committedInstType::SimdUnitStrideFaultOnlyFirstLoad            0                       # Class of committed instruction. (Count)
system.cpu.commitStats0.committedInstType::SimdUnitStrideSegmentedLoad            0                       # Class of committed instruction. (Count)
system.cpu.commitStats0.committedInstType::SimdUnitStrideSegmentedStore            0                       # Class of committed instruction. (Count)
system.cpu.commitStats0.committedInstType::SimdExt            0                       # Class of committed instruction. (Count)
system.cpu.commitStats0.committedInstType::SimdFloatExt            0                       # Class of committed instruction. (Count)
system.cpu.commitStats0.committedInstType::SimdConfig            0                       # Class of committed instruction. (Count)
system.cpu.commitStats0.committedInstType::total            0                       # Class of committed instruction. (Count)
system.cpu.dcache.demandHits::switch_cpus_1.data       168260                       # number of demand (read+write) hits (Count)
system.cpu.dcache.demandHits::total            168260                       # number of demand (read+write) hits (Count)
system.cpu.dcache.overallHits::switch_cpus_1.data       168260                       # number of overall hits (Count)
system.cpu.dcache.overallHits::total           168260                       # number of overall hits (Count)
system.cpu.dcache.demandMisses::switch_cpus_1.data        12723                       # number of demand (read+write) misses (Count)
system.cpu.dcache.demandMisses::total           12723                       # number of demand (read+write) misses (Count)
system.cpu.dcache.overallMisses::switch_cpus_1.data        12723                       # number of overall misses (Count)
system.cpu.dcache.overallMisses::total          12723                       # number of overall misses (Count)
system.cpu.dcache.demandMissLatency::switch_cpus_1.data    614767000                       # number of demand (read+write) miss ticks (Tick)
system.cpu.dcache.demandMissLatency::total    614767000                       # number of demand (read+write) miss ticks (Tick)
system.cpu.dcache.overallMissLatency::switch_cpus_1.data    614767000                       # number of overall miss ticks (Tick)
system.cpu.dcache.overallMissLatency::total    614767000                       # number of overall miss ticks (Tick)
system.cpu.dcache.demandAccesses::switch_cpus_1.data       180983                       # number of demand (read+write) accesses (Count)
system.cpu.dcache.demandAccesses::total        180983                       # number of demand (read+write) accesses (Count)
system.cpu.dcache.overallAccesses::switch_cpus_1.data       180983                       # number of overall (read+write) accesses (Count)
system.cpu.dcache.overallAccesses::total       180983                       # number of overall (read+write) accesses (Count)
system.cpu.dcache.demandMissRate::switch_cpus_1.data     0.070299                       # miss rate for demand accesses (Ratio)
system.cpu.dcache.demandMissRate::total      0.070299                       # miss rate for demand accesses (Ratio)
system.cpu.dcache.overallMissRate::switch_cpus_1.data     0.070299                       # miss rate for overall accesses (Ratio)
system.cpu.dcache.overallMissRate::total     0.070299                       # miss rate for overall accesses (Ratio)
system.cpu.dcache.demandAvgMissLatency::switch_cpus_1.data 48319.342922                       # average overall miss latency in ticks ((Tick/Count))
system.cpu.dcache.demandAvgMissLatency::total 48319.342922                       # average overall miss latency in ticks ((Tick/Count))
system.cpu.dcache.overallAvgMissLatency::switch_cpus_1.data 48319.342922                       # average overall miss latency ((Tick/Count))
system.cpu.dcache.overallAvgMissLatency::total 48319.342922                       # average overall miss latency ((Tick/Count))
system.cpu.dcache.blockedCycles::no_mshrs            0                       # number of cycles access was blocked (Cycle)
system.cpu.dcache.blockedCycles::no_targets            0                       # number of cycles access was blocked (Cycle)
system.cpu.dcache.blockedCauses::no_mshrs            0                       # number of times access was blocked (Count)
system.cpu.dcache.blockedCauses::no_targets            0                       # number of times access was blocked (Count)
system.cpu.dcache.avgBlocked::no_mshrs            nan                       # average number of cycles each access was blocked ((Cycle/Count))
system.cpu.dcache.avgBlocked::no_targets          nan                       # average number of cycles each access was blocked ((Cycle/Count))
system.cpu.dcache.writebacks::writebacks          394                       # number of writebacks (Count)
system.cpu.dcache.writebacks::total               394                       # number of writebacks (Count)
system.cpu.dcache.demandMshrHits::switch_cpus_1.data         8629                       # number of demand (read+write) MSHR hits (Count)
system.cpu.dcache.demandMshrHits::total          8629                       # number of demand (read+write) MSHR hits (Count)
system.cpu.dcache.overallMshrHits::switch_cpus_1.data         8629                       # number of overall MSHR hits (Count)
system.cpu.dcache.overallMshrHits::total         8629                       # number of overall MSHR hits (Count)
system.cpu.dcache.demandMshrMisses::switch_cpus_1.data         4094                       # number of demand (read+write) MSHR misses (Count)
system.cpu.dcache.demandMshrMisses::total         4094                       # number of demand (read+write) MSHR misses (Count)
system.cpu.dcache.overallMshrMisses::switch_cpus_1.data         4094                       # number of overall MSHR misses (Count)
system.cpu.dcache.overallMshrMisses::total         4094                       # number of overall MSHR misses (Count)
system.cpu.dcache.demandMshrMissLatency::switch_cpus_1.data    141838500                       # number of demand (read+write) MSHR miss ticks (Tick)
system.cpu.dcache.demandMshrMissLatency::total    141838500                       # number of demand (read+write) MSHR miss ticks (Tick)
system.cpu.dcache.overallMshrMissLatency::switch_cpus_1.data    141838500                       # number of overall MSHR miss ticks (Tick)
system.cpu.dcache.overallMshrMissLatency::total    141838500                       # number of overall MSHR miss ticks (Tick)
system.cpu.dcache.demandMshrMissRate::switch_cpus_1.data     0.022621                       # mshr miss ratio for demand accesses (Ratio)
system.cpu.dcache.demandMshrMissRate::total     0.022621                       # mshr miss ratio for demand accesses (Ratio)
system.cpu.dcache.overallMshrMissRate::switch_cpus_1.data     0.022621                       # mshr miss ratio for overall accesses (Ratio)
system.cpu.dcache.overallMshrMissRate::total     0.022621                       # mshr miss ratio for overall accesses (Ratio)
system.cpu.dcache.demandAvgMshrMissLatency::switch_cpus_1.data 34645.456766                       # average overall mshr miss latency ((Tick/Count))
system.cpu.dcache.demandAvgMshrMissLatency::total 34645.456766                       # average overall mshr miss latency ((Tick/Count))
system.cpu.dcache.overallAvgMshrMissLatency::switch_cpus_1.data 34645.456766                       # average overall mshr miss latency ((Tick/Count))
system.cpu.dcache.overallAvgMshrMissLatency::total 34645.456766                       # average overall mshr miss latency ((Tick/Count))
system.cpu.dcache.replacements                   4094                       # number of replacements (Count)
system.cpu.dcache.ReadReq.hits::switch_cpus_1.data       124647                       # number of ReadReq hits (Count)
system.cpu.dcache.ReadReq.hits::total          124647                       # number of ReadReq hits (Count)
system.cpu.dcache.ReadReq.misses::switch_cpus_1.data        12413                       # number of ReadReq misses (Count)
system.cpu.dcache.ReadReq.misses::total         12413                       # number of ReadReq misses (Count)
system.cpu.dcache.ReadReq.missLatency::switch_cpus_1.data    606355000                       # number of ReadReq miss ticks (Tick)
system.cpu.dcache.ReadReq.missLatency::total    606355000                       # number of ReadReq miss ticks (Tick)
system.cpu.dcache.ReadReq.accesses::switch_cpus_1.data       137060                       # number of ReadReq accesses(hits+misses) (Count)
system.cpu.dcache.ReadReq.accesses::total       137060                       # number of ReadReq accesses(hits+misses) (Count)
system.cpu.dcache.ReadReq.missRate::switch_cpus_1.data     0.090566                       # miss rate for ReadReq accesses (Ratio)
system.cpu.dcache.ReadReq.missRate::total     0.090566                       # miss rate for ReadReq accesses (Ratio)
system.cpu.dcache.ReadReq.avgMissLatency::switch_cpus_1.data 48848.384758                       # average ReadReq miss latency ((Tick/Count))
system.cpu.dcache.ReadReq.avgMissLatency::total 48848.384758                       # average ReadReq miss latency ((Tick/Count))
system.cpu.dcache.ReadReq.mshrHits::switch_cpus_1.data         8629                       # number of ReadReq MSHR hits (Count)
system.cpu.dcache.ReadReq.mshrHits::total         8629                       # number of ReadReq MSHR hits (Count)
system.cpu.dcache.ReadReq.mshrMisses::switch_cpus_1.data         3784                       # number of ReadReq MSHR misses (Count)
system.cpu.dcache.ReadReq.mshrMisses::total         3784                       # number of ReadReq MSHR misses (Count)
system.cpu.dcache.ReadReq.mshrMissLatency::switch_cpus_1.data    133891500                       # number of ReadReq MSHR miss ticks (Tick)
system.cpu.dcache.ReadReq.mshrMissLatency::total    133891500                       # number of ReadReq MSHR miss ticks (Tick)
system.cpu.dcache.ReadReq.mshrMissRate::switch_cpus_1.data     0.027608                       # mshr miss rate for ReadReq accesses (Ratio)
system.cpu.dcache.ReadReq.mshrMissRate::total     0.027608                       # mshr miss rate for ReadReq accesses (Ratio)
system.cpu.dcache.ReadReq.avgMshrMissLatency::switch_cpus_1.data 35383.588795                       # average ReadReq mshr miss latency ((Tick/Count))
system.cpu.dcache.ReadReq.avgMshrMissLatency::total 35383.588795                       # average ReadReq mshr miss latency ((Tick/Count))
system.cpu.dcache.WriteReq.hits::switch_cpus_1.data        43613                       # number of WriteReq hits (Count)
system.cpu.dcache.WriteReq.hits::total          43613                       # number of WriteReq hits (Count)
system.cpu.dcache.WriteReq.misses::switch_cpus_1.data          310                       # number of WriteReq misses (Count)
system.cpu.dcache.WriteReq.misses::total          310                       # number of WriteReq misses (Count)
system.cpu.dcache.WriteReq.missLatency::switch_cpus_1.data      8412000                       # number of WriteReq miss ticks (Tick)
system.cpu.dcache.WriteReq.missLatency::total      8412000                       # number of WriteReq miss ticks (Tick)
system.cpu.dcache.WriteReq.accesses::switch_cpus_1.data        43923                       # number of WriteReq accesses(hits+misses) (Count)
system.cpu.dcache.WriteReq.accesses::total        43923                       # number of WriteReq accesses(hits+misses) (Count)
system.cpu.dcache.WriteReq.missRate::switch_cpus_1.data     0.007058                       # miss rate for WriteReq accesses (Ratio)
system.cpu.dcache.WriteReq.missRate::total     0.007058                       # miss rate for WriteReq accesses (Ratio)
system.cpu.dcache.WriteReq.avgMissLatency::switch_cpus_1.data 27135.483871                       # average WriteReq miss latency ((Tick/Count))
system.cpu.dcache.WriteReq.avgMissLatency::total 27135.483871                       # average WriteReq miss latency ((Tick/Count))
system.cpu.dcache.WriteReq.mshrMisses::switch_cpus_1.data          310                       # number of WriteReq MSHR misses (Count)
system.cpu.dcache.WriteReq.mshrMisses::total          310                       # number of WriteReq MSHR misses (Count)
system.cpu.dcache.WriteReq.mshrMissLatency::switch_cpus_1.data      7947000                       # number of WriteReq MSHR miss ticks (Tick)
system.cpu.dcache.WriteReq.mshrMissLatency::total      7947000                       # number of WriteReq MSHR miss ticks (Tick)
system.cpu.dcache.WriteReq.mshrMissRate::switch_cpus_1.data     0.007058                       # mshr miss rate for WriteReq accesses (Ratio)
system.cpu.dcache.WriteReq.mshrMissRate::total     0.007058                       # mshr miss rate for WriteReq accesses (Ratio)
system.cpu.dcache.WriteReq.avgMshrMissLatency::switch_cpus_1.data 25635.483871                       # average WriteReq mshr miss latency ((Tick/Count))
system.cpu.dcache.WriteReq.avgMshrMissLatency::total 25635.483871                       # average WriteReq mshr miss latency ((Tick/Count))
system.cpu.dcache.power_state.pwrStateResidencyTicks::UNDEFINED   2477118000                       # Cumulative time (in ticks) in various power states (Tick)
system.cpu.dcache.tags.tagsInUse                  512                       # Average ticks per tags in use ((Tick/Count))
system.cpu.dcache.tags.totalRefs               314369                       # Total number of references to valid blocks. (Count)
system.cpu.dcache.tags.sampledRefs               4606                       # Sample count of references to valid blocks. (Count)
system.cpu.dcache.tags.avgRefs              68.252063                       # Average number of references to valid blocks. ((Count/Count))
system.cpu.dcache.tags.warmupTick                   0                       # The tick when the warmup percentage was hit. (Tick)
system.cpu.dcache.tags.occupancies::cpu.data            1                       # Average occupied blocks per tick, per requestor ((Count/Tick))
system.cpu.dcache.tags.occupancies::switch_cpus.data    79.025785                       # Average occupied blocks per tick, per requestor ((Count/Tick))
system.cpu.dcache.tags.occupancies::switch_cpus_1.data   431.974215                       # Average occupied blocks per tick, per requestor ((Count/Tick))
system.cpu.dcache.tags.avgOccs::cpu.data     0.001953                       # Average percentage of cache occupancy ((Ratio/Tick))
system.cpu.dcache.tags.avgOccs::switch_cpus.data     0.154347                       # Average percentage of cache occupancy ((Ratio/Tick))
system.cpu.dcache.tags.avgOccs::switch_cpus_1.data     0.843700                       # Average percentage of cache occupancy ((Ratio/Tick))
system.cpu.dcache.tags.avgOccs::total               1                       # Average percentage of cache occupancy ((Ratio/Tick))
system.cpu.dcache.tags.occupanciesTaskId::1024          512                       # Occupied blocks per task id (Count)
system.cpu.dcache.tags.ageTaskId_1024::0          145                       # Occupied blocks per task id, per block age (Count)
system.cpu.dcache.tags.ageTaskId_1024::1          324                       # Occupied blocks per task id, per block age (Count)
system.cpu.dcache.tags.ageTaskId_1024::2           22                       # Occupied blocks per task id, per block age (Count)
system.cpu.dcache.tags.ageTaskId_1024::3           21                       # Occupied blocks per task id, per block age (Count)
system.cpu.dcache.tags.ratioOccsTaskId::1024            1                       # Ratio of occupied blocks and all blocks, per task id (Ratio)
system.cpu.dcache.tags.tagAccesses             366060                       # Number of tag accesses (Count)
system.cpu.dcache.tags.dataAccesses            366060                       # Number of data accesses (Count)
system.cpu.dcache.tags.power_state.pwrStateResidencyTicks::UNDEFINED   2477118000                       # Cumulative time (in ticks) in various power states (Tick)
system.cpu.dtb_walker_cache.blockedCycles::no_mshrs            0                       # number of cycles access was blocked (Cycle)
system.cpu.dtb_walker_cache.blockedCycles::no_targets            0                       # number of cycles access was blocked (Cycle)
system.cpu.dtb_walker_cache.blockedCauses::no_mshrs            0                       # number of times access was blocked (Count)
system.cpu.dtb_walker_cache.blockedCauses::no_targets            0                       # number of times access was blocked (Count)
system.cpu.dtb_walker_cache.avgBlocked::no_mshrs          nan                       # average number of cycles each access was blocked ((Cycle/Count))
system.cpu.dtb_walker_cache.avgBlocked::no_targets          nan                       # average number of cycles each access was blocked ((Cycle/Count))
system.cpu.dtb_walker_cache.replacements            0                       # number of replacements (Count)
system.cpu.dtb_walker_cache.power_state.pwrStateResidencyTicks::UNDEFINED   2477118000                       # Cumulative time (in ticks) in various power states (Tick)
system.cpu.dtb_walker_cache.tags.tagsInUse            0                       # Average ticks per tags in use ((Tick/Count))
system.cpu.dtb_walker_cache.tags.totalRefs            0                       # Total number of references to valid blocks. (Count)
system.cpu.dtb_walker_cache.tags.sampledRefs            0                       # Sample count of references to valid blocks. (Count)
system.cpu.dtb_walker_cache.tags.avgRefs          nan                       # Average number of references to valid blocks. ((Count/Count))
system.cpu.dtb_walker_cache.tags.warmupTick            0                       # The tick when the warmup percentage was hit. (Tick)
system.cpu.dtb_walker_cache.tags.tagAccesses            0                       # Number of tag accesses (Count)
system.cpu.dtb_walker_cache.tags.dataAccesses            0                       # Number of data accesses (Count)
system.cpu.dtb_walker_cache.tags.power_state.pwrStateResidencyTicks::UNDEFINED   2477118000                       # Cumulative time (in ticks) in various power states (Tick)
system.cpu.exec_context.thread_0.numMatAluAccesses            0                       # Number of matrix alu accesses (Count)
system.cpu.exec_context.thread_0.numCallsReturns            0                       # Number of times a function call or return occured (Count)
system.cpu.exec_context.thread_0.numMatInsts            0                       # Number of matrix instructions (Count)
system.cpu.exec_context.thread_0.numIdleCycles            0                       # Number of idle cycles (Cycle)
system.cpu.exec_context.thread_0.numBusyCycles            0                       # Number of busy cycles (Cycle)
system.cpu.exec_context.thread_0.notIdleFraction            1                       # Percentage of non-idle cycles (Ratio)
system.cpu.exec_context.thread_0.idleFraction            0                       # Percentage of idle cycles (Ratio)
system.cpu.executeStats0.numInsts                   0                       # Number of executed instructions (Count)
system.cpu.executeStats0.numNop                     0                       # Number of nop insts executed (Count)
system.cpu.executeStats0.numBranches                0                       # Number of branches executed (Count)
system.cpu.executeStats0.numLoadInsts               0                       # Number of load instructions executed (Count)
system.cpu.executeStats0.numStoreInsts              0                       # Number of stores executed (Count)
system.cpu.executeStats0.instRate                 nan                       # Inst execution rate ((Count/Cycle))
system.cpu.executeStats0.numFpRegWrites             0                       # Number of times the floating registers were written (Count)
system.cpu.executeStats0.numMemRefs                 0                       # Number of memory refs (Count)
system.cpu.executeStats0.numVecAluAccesses            0                       # Number of vector alu accesses (Count)
system.cpu.executeStats0.numDiscardedOps            0                       # Number of ops (including micro ops) which were discarded before commit (Count)
system.cpu.fetchStats0.numInsts                     0                       # Number of instructions fetched (thread level) (Count)
system.cpu.fetchStats0.numOps                       0                       # Number of ops (including micro ops) fetched (thread level) (Count)
system.cpu.fetchStats0.fetchRate                  nan                       # Number of inst fetches per cycle ((Count/Cycle))
system.cpu.fetchStats0.branchRate                 nan                       # Number of branch fetches per cycle (Ratio)
system.cpu.fetchStats0.numFetchSuspends             0                       # Number of times Execute suspended instruction fetching (Count)
system.cpu.icache.demandHits::switch_cpus_1.inst        84912                       # number of demand (read+write) hits (Count)
system.cpu.icache.demandHits::total             84912                       # number of demand (read+write) hits (Count)
system.cpu.icache.overallHits::switch_cpus_1.inst        84912                       # number of overall hits (Count)
system.cpu.icache.overallHits::total            84912                       # number of overall hits (Count)
system.cpu.icache.demandMisses::switch_cpus_1.inst           16                       # number of demand (read+write) misses (Count)
system.cpu.icache.demandMisses::total              16                       # number of demand (read+write) misses (Count)
system.cpu.icache.overallMisses::switch_cpus_1.inst           16                       # number of overall misses (Count)
system.cpu.icache.overallMisses::total             16                       # number of overall misses (Count)
system.cpu.icache.demandMissLatency::switch_cpus_1.inst      1028500                       # number of demand (read+write) miss ticks (Tick)
system.cpu.icache.demandMissLatency::total      1028500                       # number of demand (read+write) miss ticks (Tick)
system.cpu.icache.overallMissLatency::switch_cpus_1.inst      1028500                       # number of overall miss ticks (Tick)
system.cpu.icache.overallMissLatency::total      1028500                       # number of overall miss ticks (Tick)
system.cpu.icache.demandAccesses::switch_cpus_1.inst        84928                       # number of demand (read+write) accesses (Count)
system.cpu.icache.demandAccesses::total         84928                       # number of demand (read+write) accesses (Count)
system.cpu.icache.overallAccesses::switch_cpus_1.inst        84928                       # number of overall (read+write) accesses (Count)
system.cpu.icache.overallAccesses::total        84928                       # number of overall (read+write) accesses (Count)
system.cpu.icache.demandMissRate::switch_cpus_1.inst     0.000188                       # miss rate for demand accesses (Ratio)
system.cpu.icache.demandMissRate::total      0.000188                       # miss rate for demand accesses (Ratio)
system.cpu.icache.overallMissRate::switch_cpus_1.inst     0.000188                       # miss rate for overall accesses (Ratio)
system.cpu.icache.overallMissRate::total     0.000188                       # miss rate for overall accesses (Ratio)
system.cpu.icache.demandAvgMissLatency::switch_cpus_1.inst 64281.250000                       # average overall miss latency in ticks ((Tick/Count))
system.cpu.icache.demandAvgMissLatency::total 64281.250000                       # average overall miss latency in ticks ((Tick/Count))
system.cpu.icache.overallAvgMissLatency::switch_cpus_1.inst 64281.250000                       # average overall miss latency ((Tick/Count))
system.cpu.icache.overallAvgMissLatency::total 64281.250000                       # average overall miss latency ((Tick/Count))
system.cpu.icache.blockedCycles::no_mshrs            0                       # number of cycles access was blocked (Cycle)
system.cpu.icache.blockedCycles::no_targets            0                       # number of cycles access was blocked (Cycle)
system.cpu.icache.blockedCauses::no_mshrs            0                       # number of times access was blocked (Count)
system.cpu.icache.blockedCauses::no_targets            0                       # number of times access was blocked (Count)
system.cpu.icache.avgBlocked::no_mshrs            nan                       # average number of cycles each access was blocked ((Cycle/Count))
system.cpu.icache.avgBlocked::no_targets          nan                       # average number of cycles each access was blocked ((Cycle/Count))
system.cpu.icache.writebacks::writebacks           10                       # number of writebacks (Count)
system.cpu.icache.writebacks::total                10                       # number of writebacks (Count)
system.cpu.icache.demandMshrHits::switch_cpus_1.inst            5                       # number of demand (read+write) MSHR hits (Count)
system.cpu.icache.demandMshrHits::total             5                       # number of demand (read+write) MSHR hits (Count)
system.cpu.icache.overallMshrHits::switch_cpus_1.inst            5                       # number of overall MSHR hits (Count)
system.cpu.icache.overallMshrHits::total            5                       # number of overall MSHR hits (Count)
system.cpu.icache.demandMshrMisses::switch_cpus_1.inst           11                       # number of demand (read+write) MSHR misses (Count)
system.cpu.icache.demandMshrMisses::total           11                       # number of demand (read+write) MSHR misses (Count)
system.cpu.icache.overallMshrMisses::switch_cpus_1.inst           11                       # number of overall MSHR misses (Count)
system.cpu.icache.overallMshrMisses::total           11                       # number of overall MSHR misses (Count)
system.cpu.icache.demandMshrMissLatency::switch_cpus_1.inst       752500                       # number of demand (read+write) MSHR miss ticks (Tick)
system.cpu.icache.demandMshrMissLatency::total       752500                       # number of demand (read+write) MSHR miss ticks (Tick)
system.cpu.icache.overallMshrMissLatency::switch_cpus_1.inst       752500                       # number of overall MSHR miss ticks (Tick)
system.cpu.icache.overallMshrMissLatency::total       752500                       # number of overall MSHR miss ticks (Tick)
system.cpu.icache.demandMshrMissRate::switch_cpus_1.inst     0.000130                       # mshr miss ratio for demand accesses (Ratio)
system.cpu.icache.demandMshrMissRate::total     0.000130                       # mshr miss ratio for demand accesses (Ratio)
system.cpu.icache.overallMshrMissRate::switch_cpus_1.inst     0.000130                       # mshr miss ratio for overall accesses (Ratio)
system.cpu.icache.overallMshrMissRate::total     0.000130                       # mshr miss ratio for overall accesses (Ratio)
system.cpu.icache.demandAvgMshrMissLatency::switch_cpus_1.inst 68409.090909                       # average overall mshr miss latency ((Tick/Count))
system.cpu.icache.demandAvgMshrMissLatency::total 68409.090909                       # average overall mshr miss latency ((Tick/Count))
system.cpu.icache.overallAvgMshrMissLatency::switch_cpus_1.inst 68409.090909                       # average overall mshr miss latency ((Tick/Count))
system.cpu.icache.overallAvgMshrMissLatency::total 68409.090909                       # average overall mshr miss latency ((Tick/Count))
system.cpu.icache.replacements                     10                       # number of replacements (Count)
system.cpu.icache.ReadReq.hits::switch_cpus_1.inst        84912                       # number of ReadReq hits (Count)
system.cpu.icache.ReadReq.hits::total           84912                       # number of ReadReq hits (Count)
system.cpu.icache.ReadReq.misses::switch_cpus_1.inst           16                       # number of ReadReq misses (Count)
system.cpu.icache.ReadReq.misses::total            16                       # number of ReadReq misses (Count)
system.cpu.icache.ReadReq.missLatency::switch_cpus_1.inst      1028500                       # number of ReadReq miss ticks (Tick)
system.cpu.icache.ReadReq.missLatency::total      1028500                       # number of ReadReq miss ticks (Tick)
system.cpu.icache.ReadReq.accesses::switch_cpus_1.inst        84928                       # number of ReadReq accesses(hits+misses) (Count)
system.cpu.icache.ReadReq.accesses::total        84928                       # number of ReadReq accesses(hits+misses) (Count)
system.cpu.icache.ReadReq.missRate::switch_cpus_1.inst     0.000188                       # miss rate for ReadReq accesses (Ratio)
system.cpu.icache.ReadReq.missRate::total     0.000188                       # miss rate for ReadReq accesses (Ratio)
system.cpu.icache.ReadReq.avgMissLatency::switch_cpus_1.inst 64281.250000                       # average ReadReq miss latency ((Tick/Count))
system.cpu.icache.ReadReq.avgMissLatency::total 64281.250000                       # average ReadReq miss latency ((Tick/Count))
system.cpu.icache.ReadReq.mshrHits::switch_cpus_1.inst            5                       # number of ReadReq MSHR hits (Count)
system.cpu.icache.ReadReq.mshrHits::total            5                       # number of ReadReq MSHR hits (Count)
system.cpu.icache.ReadReq.mshrMisses::switch_cpus_1.inst           11                       # number of ReadReq MSHR misses (Count)
system.cpu.icache.ReadReq.mshrMisses::total           11                       # number of ReadReq MSHR misses (Count)
system.cpu.icache.ReadReq.mshrMissLatency::switch_cpus_1.inst       752500                       # number of ReadReq MSHR miss ticks (Tick)
system.cpu.icache.ReadReq.mshrMissLatency::total       752500                       # number of ReadReq MSHR miss ticks (Tick)
system.cpu.icache.ReadReq.mshrMissRate::switch_cpus_1.inst     0.000130                       # mshr miss rate for ReadReq accesses (Ratio)
system.cpu.icache.ReadReq.mshrMissRate::total     0.000130                       # mshr miss rate for ReadReq accesses (Ratio)
system.cpu.icache.ReadReq.avgMshrMissLatency::switch_cpus_1.inst 68409.090909                       # average ReadReq mshr miss latency ((Tick/Count))
system.cpu.icache.ReadReq.avgMshrMissLatency::total 68409.090909                       # average ReadReq mshr miss latency ((Tick/Count))
system.cpu.icache.power_state.pwrStateResidencyTicks::UNDEFINED   2477118000                       # Cumulative time (in ticks) in various power states (Tick)
system.cpu.icache.tags.tagsInUse           461.997743                       # Average ticks per tags in use ((Tick/Count))
system.cpu.icache.tags.totalRefs              1126928                       # Total number of references to valid blocks. (Count)
system.cpu.icache.tags.sampledRefs                472                       # Sample count of references to valid blocks. (Count)
system.cpu.icache.tags.avgRefs            2387.559322                       # Average number of references to valid blocks. ((Count/Count))
system.cpu.icache.tags.warmupTick                   0                       # The tick when the warmup percentage was hit. (Tick)
system.cpu.icache.tags.occupancies::cpu.inst   311.031422                       # Average occupied blocks per tick, per requestor ((Count/Tick))
system.cpu.icache.tags.occupancies::switch_cpus.inst   140.011526                       # Average occupied blocks per tick, per requestor ((Count/Tick))
system.cpu.icache.tags.occupancies::switch_cpus_1.inst    10.954795                       # Average occupied blocks per tick, per requestor ((Count/Tick))
system.cpu.icache.tags.avgOccs::cpu.inst     0.607483                       # Average percentage of cache occupancy ((Ratio/Tick))
system.cpu.icache.tags.avgOccs::switch_cpus.inst     0.273460                       # Average percentage of cache occupancy ((Ratio/Tick))
system.cpu.icache.tags.avgOccs::switch_cpus_1.inst     0.021396                       # Average percentage of cache occupancy ((Ratio/Tick))
system.cpu.icache.tags.avgOccs::total        0.902339                       # Average percentage of cache occupancy ((Ratio/Tick))
system.cpu.icache.tags.occupanciesTaskId::1024          462                       # Occupied blocks per task id (Count)
system.cpu.icache.tags.ageTaskId_1024::2           11                       # Occupied blocks per task id, per block age (Count)
system.cpu.icache.tags.ageTaskId_1024::3          451                       # Occupied blocks per task id, per block age (Count)
system.cpu.icache.tags.ratioOccsTaskId::1024     0.902344                       # Ratio of occupied blocks and all blocks, per task id (Ratio)
system.cpu.icache.tags.tagAccesses             169867                       # Number of tag accesses (Count)
system.cpu.icache.tags.dataAccesses            169867                       # Number of data accesses (Count)
system.cpu.icache.tags.power_state.pwrStateResidencyTicks::UNDEFINED   2477118000                       # Cumulative time (in ticks) in various power states (Tick)
system.cpu.interrupts.clk_domain.clock           8000                       # Clock period in ticks (Tick)
system.cpu.itb_walker_cache.blockedCycles::no_mshrs            0                       # number of cycles access was blocked (Cycle)
system.cpu.itb_walker_cache.blockedCycles::no_targets            0                       # number of cycles access was blocked (Cycle)
system.cpu.itb_walker_cache.blockedCauses::no_mshrs            0                       # number of times access was blocked (Count)
system.cpu.itb_walker_cache.blockedCauses::no_targets            0                       # number of times access was blocked (Count)
system.cpu.itb_walker_cache.avgBlocked::no_mshrs          nan                       # average number of cycles each access was blocked ((Cycle/Count))
system.cpu.itb_walker_cache.avgBlocked::no_targets          nan                       # average number of cycles each access was blocked ((Cycle/Count))
system.cpu.itb_walker_cache.replacements            0                       # number of replacements (Count)
system.cpu.itb_walker_cache.power_state.pwrStateResidencyTicks::UNDEFINED   2477118000                       # Cumulative time (in ticks) in various power states (Tick)
system.cpu.itb_walker_cache.tags.tagsInUse            0                       # Average ticks per tags in use ((Tick/Count))
system.cpu.itb_walker_cache.tags.totalRefs            0                       # Total number of references to valid blocks. (Count)
system.cpu.itb_walker_cache.tags.sampledRefs            0                       # Sample count of references to valid blocks. (Count)
system.cpu.itb_walker_cache.tags.avgRefs          nan                       # Average number of references to valid blocks. ((Count/Count))
system.cpu.itb_walker_cache.tags.warmupTick            0                       # The tick when the warmup percentage was hit. (Tick)
system.cpu.itb_walker_cache.tags.tagAccesses            0                       # Number of tag accesses (Count)
system.cpu.itb_walker_cache.tags.dataAccesses            0                       # Number of data accesses (Count)
system.cpu.itb_walker_cache.tags.power_state.pwrStateResidencyTicks::UNDEFINED   2477118000                       # Cumulative time (in ticks) in various power states (Tick)
system.cpu.mmu.dtb.rdAccesses                       0                       # TLB accesses on read requests (Count)
system.cpu.mmu.dtb.wrAccesses                       0                       # TLB accesses on write requests (Count)
system.cpu.mmu.dtb.rdMisses                         0                       # TLB misses on read requests (Count)
system.cpu.mmu.dtb.wrMisses                         0                       # TLB misses on write requests (Count)
system.cpu.mmu.dtb.walker.power_state.pwrStateResidencyTicks::UNDEFINED   2477118000                       # Cumulative time (in ticks) in various power states (Tick)
system.cpu.mmu.itb.rdAccesses                       0                       # TLB accesses on read requests (Count)
system.cpu.mmu.itb.wrAccesses                       0                       # TLB accesses on write requests (Count)
system.cpu.mmu.itb.rdMisses                         0                       # TLB misses on read requests (Count)
system.cpu.mmu.itb.wrMisses                         0                       # TLB misses on write requests (Count)
system.cpu.mmu.itb.walker.power_state.pwrStateResidencyTicks::UNDEFINED   2477118000                       # Cumulative time (in ticks) in various power states (Tick)
system.cpu.power_state.pwrStateResidencyTicks::OFF   2359799000                       # Cumulative time (in ticks) in various power states (Tick)
system.cpu.thread_0.numInsts                        0                       # Number of Instructions committed (Count)
system.cpu.thread_0.numOps                          0                       # Number of Ops committed (Count)
system.cpu.thread_0.numMemRefs                      0                       # Number of Memory References (Count)
system.cpu.workload.numSyscalls                     0                       # Number of system calls (Count)
system.cpu_clk_domain.clock                       500                       # Clock period in ticks (Tick)
system.cpu_voltage_domain.voltage                   1                       # Voltage in Volts (Volt)
system.l2.demandHits::switch_cpus_1.data         2255                       # number of demand (read+write) hits (Count)
system.l2.demandHits::total                      2255                       # number of demand (read+write) hits (Count)
system.l2.overallHits::switch_cpus_1.data         2255                       # number of overall hits (Count)
system.l2.overallHits::total                     2255                       # number of overall hits (Count)
system.l2.demandMisses::switch_cpus_1.inst           11                       # number of demand (read+write) misses (Count)
system.l2.demandMisses::switch_cpus_1.data         1839                       # number of demand (read+write) misses (Count)
system.l2.demandMisses::total                    1850                       # number of demand (read+write) misses (Count)
system.l2.overallMisses::switch_cpus_1.inst           11                       # number of overall misses (Count)
system.l2.overallMisses::switch_cpus_1.data         1839                       # number of overall misses (Count)
system.l2.overallMisses::total                   1850                       # number of overall misses (Count)
system.l2.demandMissLatency::switch_cpus_1.inst       730500                       # number of demand (read+write) miss ticks (Tick)
system.l2.demandMissLatency::switch_cpus_1.data    122252000                       # number of demand (read+write) miss ticks (Tick)
system.l2.demandMissLatency::total          122982500                       # number of demand (read+write) miss ticks (Tick)
system.l2.overallMissLatency::switch_cpus_1.inst       730500                       # number of overall miss ticks (Tick)
system.l2.overallMissLatency::switch_cpus_1.data    122252000                       # number of overall miss ticks (Tick)
system.l2.overallMissLatency::total         122982500                       # number of overall miss ticks (Tick)
system.l2.demandAccesses::switch_cpus_1.inst           11                       # number of demand (read+write) accesses (Count)
system.l2.demandAccesses::switch_cpus_1.data         4094                       # number of demand (read+write) accesses (Count)
system.l2.demandAccesses::total                  4105                       # number of demand (read+write) accesses (Count)
system.l2.overallAccesses::switch_cpus_1.inst           11                       # number of overall (read+write) accesses (Count)
system.l2.overallAccesses::switch_cpus_1.data         4094                       # number of overall (read+write) accesses (Count)
system.l2.overallAccesses::total                 4105                       # number of overall (read+write) accesses (Count)
system.l2.demandMissRate::switch_cpus_1.inst            1                       # miss rate for demand accesses (Ratio)
system.l2.demandMissRate::switch_cpus_1.data     0.449194                       # miss rate for demand accesses (Ratio)
system.l2.demandMissRate::total              0.450670                       # miss rate for demand accesses (Ratio)
system.l2.overallMissRate::switch_cpus_1.inst            1                       # miss rate for overall accesses (Ratio)
system.l2.overallMissRate::switch_cpus_1.data     0.449194                       # miss rate for overall accesses (Ratio)
system.l2.overallMissRate::total             0.450670                       # miss rate for overall accesses (Ratio)
system.l2.demandAvgMissLatency::switch_cpus_1.inst 66409.090909                       # average overall miss latency in ticks ((Tick/Count))
system.l2.demandAvgMissLatency::switch_cpus_1.data 66477.433388                       # average overall miss latency in ticks ((Tick/Count))
system.l2.demandAvgMissLatency::total    66477.027027                       # average overall miss latency in ticks ((Tick/Count))
system.l2.overallAvgMissLatency::switch_cpus_1.inst 66409.090909                       # average overall miss latency ((Tick/Count))
system.l2.overallAvgMissLatency::switch_cpus_1.data 66477.433388                       # average overall miss latency ((Tick/Count))
system.l2.overallAvgMissLatency::total   66477.027027                       # average overall miss latency ((Tick/Count))
system.l2.blockedCycles::no_mshrs                   0                       # number of cycles access was blocked (Cycle)
system.l2.blockedCycles::no_targets                 0                       # number of cycles access was blocked (Cycle)
system.l2.blockedCauses::no_mshrs                   0                       # number of times access was blocked (Count)
system.l2.blockedCauses::no_targets                 0                       # number of times access was blocked (Count)
system.l2.avgBlocked::no_mshrs                    nan                       # average number of cycles each access was blocked ((Cycle/Count))
system.l2.avgBlocked::no_targets                  nan                       # average number of cycles each access was blocked ((Cycle/Count))
system.l2.writebacks::writebacks                  438                       # number of writebacks (Count)
system.l2.writebacks::total                       438                       # number of writebacks (Count)
system.l2.demandMshrMisses::switch_cpus_1.inst           11                       # number of demand (read+write) MSHR misses (Count)
system.l2.demandMshrMisses::switch_cpus_1.data         1839                       # number of demand (read+write) MSHR misses (Count)
system.l2.demandMshrMisses::total                1850                       # number of demand (read+write) MSHR misses (Count)
system.l2.overallMshrMisses::l2.prefetcher           20                       # number of overall MSHR misses (Count)
system.l2.overallMshrMisses::switch_cpus_1.inst           11                       # number of overall MSHR misses (Count)
system.l2.overallMshrMisses::switch_cpus_1.data         1839                       # number of overall MSHR misses (Count)
system.l2.overallMshrMisses::total               1870                       # number of overall MSHR misses (Count)
system.l2.demandMshrMissLatency::switch_cpus_1.inst       677779                       # number of demand (read+write) MSHR miss ticks (Tick)
system.l2.demandMshrMissLatency::switch_cpus_1.data    113529228                       # number of demand (read+write) MSHR miss ticks (Tick)
system.l2.demandMshrMissLatency::total      114207007                       # number of demand (read+write) MSHR miss ticks (Tick)
system.l2.overallMshrMissLatency::l2.prefetcher       998861                       # number of overall MSHR miss ticks (Tick)
system.l2.overallMshrMissLatency::switch_cpus_1.inst       677779                       # number of overall MSHR miss ticks (Tick)
system.l2.overallMshrMissLatency::switch_cpus_1.data    113529228                       # number of overall MSHR miss ticks (Tick)
system.l2.overallMshrMissLatency::total     115205868                       # number of overall MSHR miss ticks (Tick)
system.l2.demandMshrMissRate::switch_cpus_1.inst            1                       # mshr miss ratio for demand accesses (Ratio)
system.l2.demandMshrMissRate::switch_cpus_1.data     0.449194                       # mshr miss ratio for demand accesses (Ratio)
system.l2.demandMshrMissRate::total          0.450670                       # mshr miss ratio for demand accesses (Ratio)
system.l2.overallMshrMissRate::l2.prefetcher          inf                       # mshr miss ratio for overall accesses (Ratio)
system.l2.overallMshrMissRate::switch_cpus_1.inst            1                       # mshr miss ratio for overall accesses (Ratio)
system.l2.overallMshrMissRate::switch_cpus_1.data     0.449194                       # mshr miss ratio for overall accesses (Ratio)
system.l2.overallMshrMissRate::total         0.455542                       # mshr miss ratio for overall accesses (Ratio)
system.l2.demandAvgMshrMissLatency::switch_cpus_1.inst 61616.272727                       # average overall mshr miss latency ((Tick/Count))
system.l2.demandAvgMshrMissLatency::switch_cpus_1.data 61734.218597                       # average overall mshr miss latency ((Tick/Count))
system.l2.demandAvgMshrMissLatency::total 61733.517297                       # average overall mshr miss latency ((Tick/Count))
system.l2.overallAvgMshrMissLatency::l2.prefetcher 49943.050000                       # average overall mshr miss latency ((Tick/Count))
system.l2.overallAvgMshrMissLatency::switch_cpus_1.inst 61616.272727                       # average overall mshr miss latency ((Tick/Count))
system.l2.overallAvgMshrMissLatency::switch_cpus_1.data 61734.218597                       # average overall mshr miss latency ((Tick/Count))
system.l2.overallAvgMshrMissLatency::total 61607.416043                       # average overall mshr miss latency ((Tick/Count))
system.l2.replacements                           1884                       # number of replacements (Count)
system.l2.HardPFReq.mshrMisses::l2.prefetcher           20                       # number of HardPFReq MSHR misses (Count)
system.l2.HardPFReq.mshrMisses::total              20                       # number of HardPFReq MSHR misses (Count)
system.l2.HardPFReq.mshrMissLatency::l2.prefetcher       998861                       # number of HardPFReq MSHR miss ticks (Tick)
system.l2.HardPFReq.mshrMissLatency::total       998861                       # number of HardPFReq MSHR miss ticks (Tick)
system.l2.HardPFReq.mshrMissRate::l2.prefetcher          inf                       # mshr miss rate for HardPFReq accesses (Ratio)
system.l2.HardPFReq.mshrMissRate::total           inf                       # mshr miss rate for HardPFReq accesses (Ratio)
system.l2.HardPFReq.avgMshrMissLatency::l2.prefetcher 49943.050000                       # average HardPFReq mshr miss latency ((Tick/Count))
system.l2.HardPFReq.avgMshrMissLatency::total 49943.050000                       # average HardPFReq mshr miss latency ((Tick/Count))
system.l2.ReadCleanReq.misses::switch_cpus_1.inst           11                       # number of ReadCleanReq misses (Count)
system.l2.ReadCleanReq.misses::total               11                       # number of ReadCleanReq misses (Count)
system.l2.ReadCleanReq.missLatency::switch_cpus_1.inst       730500                       # number of ReadCleanReq miss ticks (Tick)
system.l2.ReadCleanReq.missLatency::total       730500                       # number of ReadCleanReq miss ticks (Tick)
system.l2.ReadCleanReq.accesses::switch_cpus_1.inst           11                       # number of ReadCleanReq accesses(hits+misses) (Count)
system.l2.ReadCleanReq.accesses::total             11                       # number of ReadCleanReq accesses(hits+misses) (Count)
system.l2.ReadCleanReq.missRate::switch_cpus_1.inst            1                       # miss rate for ReadCleanReq accesses (Ratio)
system.l2.ReadCleanReq.missRate::total              1                       # miss rate for ReadCleanReq accesses (Ratio)
system.l2.ReadCleanReq.avgMissLatency::switch_cpus_1.inst 66409.090909                       # average ReadCleanReq miss latency ((Tick/Count))
system.l2.ReadCleanReq.avgMissLatency::total 66409.090909                       # average ReadCleanReq miss latency ((Tick/Count))
system.l2.ReadCleanReq.mshrMisses::switch_cpus_1.inst           11                       # number of ReadCleanReq MSHR misses (Count)
system.l2.ReadCleanReq.mshrMisses::total           11                       # number of ReadCleanReq MSHR misses (Count)
system.l2.ReadCleanReq.mshrMissLatency::switch_cpus_1.inst       677779                       # number of ReadCleanReq MSHR miss ticks (Tick)
system.l2.ReadCleanReq.mshrMissLatency::total       677779                       # number of ReadCleanReq MSHR miss ticks (Tick)
system.l2.ReadCleanReq.mshrMissRate::switch_cpus_1.inst            1                       # mshr miss rate for ReadCleanReq accesses (Ratio)
system.l2.ReadCleanReq.mshrMissRate::total            1                       # mshr miss rate for ReadCleanReq accesses (Ratio)
system.l2.ReadCleanReq.avgMshrMissLatency::switch_cpus_1.inst 61616.272727                       # average ReadCleanReq mshr miss latency ((Tick/Count))
system.l2.ReadCleanReq.avgMshrMissLatency::total 61616.272727                       # average ReadCleanReq mshr miss latency ((Tick/Count))
system.l2.ReadExReq.hits::switch_cpus_1.data          224                       # number of ReadExReq hits (Count)
system.l2.ReadExReq.hits::total                   224                       # number of ReadExReq hits (Count)
system.l2.ReadExReq.misses::switch_cpus_1.data           86                       # number of ReadExReq misses (Count)
system.l2.ReadExReq.misses::total                  86                       # number of ReadExReq misses (Count)
system.l2.ReadExReq.missLatency::switch_cpus_1.data      6191000                       # number of ReadExReq miss ticks (Tick)
system.l2.ReadExReq.missLatency::total        6191000                       # number of ReadExReq miss ticks (Tick)
system.l2.ReadExReq.accesses::switch_cpus_1.data          310                       # number of ReadExReq accesses(hits+misses) (Count)
system.l2.ReadExReq.accesses::total               310                       # number of ReadExReq accesses(hits+misses) (Count)
system.l2.ReadExReq.missRate::switch_cpus_1.data     0.277419                       # miss rate for ReadExReq accesses (Ratio)
system.l2.ReadExReq.missRate::total          0.277419                       # miss rate for ReadExReq accesses (Ratio)
system.l2.ReadExReq.avgMissLatency::switch_cpus_1.data 71988.372093                       # average ReadExReq miss latency ((Tick/Count))
system.l2.ReadExReq.avgMissLatency::total 71988.372093                       # average ReadExReq miss latency ((Tick/Count))
system.l2.ReadExReq.mshrMisses::switch_cpus_1.data           86                       # number of ReadExReq MSHR misses (Count)
system.l2.ReadExReq.mshrMisses::total              86                       # number of ReadExReq MSHR misses (Count)
system.l2.ReadExReq.mshrMissLatency::switch_cpus_1.data      5783398                       # number of ReadExReq MSHR miss ticks (Tick)
system.l2.ReadExReq.mshrMissLatency::total      5783398                       # number of ReadExReq MSHR miss ticks (Tick)
system.l2.ReadExReq.mshrMissRate::switch_cpus_1.data     0.277419                       # mshr miss rate for ReadExReq accesses (Ratio)
system.l2.ReadExReq.mshrMissRate::total      0.277419                       # mshr miss rate for ReadExReq accesses (Ratio)
system.l2.ReadExReq.avgMshrMissLatency::switch_cpus_1.data 67248.813953                       # average ReadExReq mshr miss latency ((Tick/Count))
system.l2.ReadExReq.avgMshrMissLatency::total 67248.813953                       # average ReadExReq mshr miss latency ((Tick/Count))
system.l2.ReadSharedReq.hits::switch_cpus_1.data         2031                       # number of ReadSharedReq hits (Count)
system.l2.ReadSharedReq.hits::total              2031                       # number of ReadSharedReq hits (Count)
system.l2.ReadSharedReq.misses::switch_cpus_1.data         1753                       # number of ReadSharedReq misses (Count)
system.l2.ReadSharedReq.misses::total            1753                       # number of ReadSharedReq misses (Count)
system.l2.ReadSharedReq.missLatency::switch_cpus_1.data    116061000                       # number of ReadSharedReq miss ticks (Tick)
system.l2.ReadSharedReq.missLatency::total    116061000                       # number of ReadSharedReq miss ticks (Tick)
system.l2.ReadSharedReq.accesses::switch_cpus_1.data         3784                       # number of ReadSharedReq accesses(hits+misses) (Count)
system.l2.ReadSharedReq.accesses::total          3784                       # number of ReadSharedReq accesses(hits+misses) (Count)
system.l2.ReadSharedReq.missRate::switch_cpus_1.data     0.463266                       # miss rate for ReadSharedReq accesses (Ratio)
system.l2.ReadSharedReq.missRate::total      0.463266                       # miss rate for ReadSharedReq accesses (Ratio)
system.l2.ReadSharedReq.avgMissLatency::switch_cpus_1.data 66207.073588                       # average ReadSharedReq miss latency ((Tick/Count))
system.l2.ReadSharedReq.avgMissLatency::total 66207.073588                       # average ReadSharedReq miss latency ((Tick/Count))
system.l2.ReadSharedReq.mshrMisses::switch_cpus_1.data         1753                       # number of ReadSharedReq MSHR misses (Count)
system.l2.ReadSharedReq.mshrMisses::total         1753                       # number of ReadSharedReq MSHR misses (Count)
system.l2.ReadSharedReq.mshrMissLatency::switch_cpus_1.data    107745830                       # number of ReadSharedReq MSHR miss ticks (Tick)
system.l2.ReadSharedReq.mshrMissLatency::total    107745830                       # number of ReadSharedReq MSHR miss ticks (Tick)
system.l2.ReadSharedReq.mshrMissRate::switch_cpus_1.data     0.463266                       # mshr miss rate for ReadSharedReq accesses (Ratio)
system.l2.ReadSharedReq.mshrMissRate::total     0.463266                       # mshr miss rate for ReadSharedReq accesses (Ratio)
system.l2.ReadSharedReq.avgMshrMissLatency::switch_cpus_1.data 61463.679407                       # average ReadSharedReq mshr miss latency ((Tick/Count))
system.l2.ReadSharedReq.avgMshrMissLatency::total 61463.679407                       # average ReadSharedReq mshr miss latency ((Tick/Count))
system.l2.WritebackClean.hits::writebacks           10                       # number of WritebackClean hits (Count)
system.l2.WritebackClean.hits::total               10                       # number of WritebackClean hits (Count)
system.l2.WritebackClean.accesses::writebacks           10                       # number of WritebackClean accesses(hits+misses) (Count)
system.l2.WritebackClean.accesses::total           10                       # number of WritebackClean accesses(hits+misses) (Count)
system.l2.WritebackDirty.hits::writebacks          394                       # number of WritebackDirty hits (Count)
system.l2.WritebackDirty.hits::total              394                       # number of WritebackDirty hits (Count)
system.l2.WritebackDirty.accesses::writebacks          394                       # number of WritebackDirty accesses(hits+misses) (Count)
system.l2.WritebackDirty.accesses::total          394                       # number of WritebackDirty accesses(hits+misses) (Count)
system.l2.power_state.pwrStateResidencyTicks::UNDEFINED   2477118000                       # Cumulative time (in ticks) in various power states (Tick)
system.l2.prefetcher.demandMshrMisses            1850                       # demands not covered by prefetchs (Count)
system.l2.prefetcher.pfIssued                      27                       # number of hwpf issued (Count)
system.l2.prefetcher.pfUnused                       2                       # number of HardPF blocks evicted w/o reference (Count)
system.l2.prefetcher.pfUseful                       5                       # number of useful prefetch (Count)
system.l2.prefetcher.pfUsefulButMiss                0                       # number of hit on prefetch but cache block is not in an usable state (Count)
system.l2.prefetcher.accuracy                0.185185                       # accuracy of the prefetcher (Count)
system.l2.prefetcher.coverage                0.002695                       # coverage brought by this prefetcher (Count)
system.l2.prefetcher.pfHitInCache                   7                       # number of prefetches hitting in cache (Count)
system.l2.prefetcher.pfHitInMSHR                    0                       # number of prefetches hitting in a MSHR (Count)
system.l2.prefetcher.pfHitInWB                      0                       # number of prefetches hit in the Write Buffer (Count)
system.l2.prefetcher.pfLate                         7                       # number of late prefetches (hitting in cache, MSHR or WB) (Count)
system.l2.prefetcher.pfIdentified                  27                       # number of prefetch candidates identified (Count)
system.l2.prefetcher.pfBufferHit                    0                       # number of redundant prefetches already in prefetch queue (Count)
system.l2.prefetcher.pfInCache                      0                       # number of redundant prefetches already in cache/mshr dropped (Count)
system.l2.prefetcher.pfRemovedDemand                0                       # number of prefetches dropped due to a demand for the same address (Count)
system.l2.prefetcher.pfRemovedFull                  0                       # number of prefetches dropped due to prefetch queue size (Count)
system.l2.prefetcher.pfSpanPage                    19                       # number of prefetches that crossed the page (Count)
system.l2.prefetcher.pfUsefulSpanPage               0                       # number of prefetches that is useful and crossed the page (Count)
system.l2.prefetcher.power_state.pwrStateResidencyTicks::UNDEFINED   2477118000                       # Cumulative time (in ticks) in various power states (Tick)
system.l2.tags.tagsInUse                  4095.718670                       # Average ticks per tags in use ((Tick/Count))
system.l2.tags.totalRefs                        20035                       # Total number of references to valid blocks. (Count)
system.l2.tags.sampledRefs                       5980                       # Sample count of references to valid blocks. (Count)
system.l2.tags.avgRefs                       3.350334                       # Average number of references to valid blocks. ((Count/Count))
system.l2.tags.warmupTick                           0                       # The tick when the warmup percentage was hit. (Tick)
system.l2.tags.occupancies::writebacks      14.335566                       # Average occupied blocks per tick, per requestor ((Count/Tick))
system.l2.tags.occupancies::cpu.inst        21.180825                       # Average occupied blocks per tick, per requestor ((Count/Tick))
system.l2.tags.occupancies::cpu.data       174.478781                       # Average occupied blocks per tick, per requestor ((Count/Tick))
system.l2.tags.occupancies::l2.prefetcher    15.150601                       # Average occupied blocks per tick, per requestor ((Count/Tick))
system.l2.tags.occupancies::switch_cpus.inst     9.327179                       # Average occupied blocks per tick, per requestor ((Count/Tick))
system.l2.tags.occupancies::switch_cpus.data  2935.913834                       # Average occupied blocks per tick, per requestor ((Count/Tick))
system.l2.tags.occupancies::switch_cpus_1.inst     9.794638                       # Average occupied blocks per tick, per requestor ((Count/Tick))
system.l2.tags.occupancies::switch_cpus_1.data   915.537247                       # Average occupied blocks per tick, per requestor ((Count/Tick))
system.l2.tags.avgOccs::writebacks           0.003500                       # Average percentage of cache occupancy ((Ratio/Tick))
system.l2.tags.avgOccs::cpu.inst             0.005171                       # Average percentage of cache occupancy ((Ratio/Tick))
system.l2.tags.avgOccs::cpu.data             0.042597                       # Average percentage of cache occupancy ((Ratio/Tick))
system.l2.tags.avgOccs::l2.prefetcher        0.003699                       # Average percentage of cache occupancy ((Ratio/Tick))
system.l2.tags.avgOccs::switch_cpus.inst     0.002277                       # Average percentage of cache occupancy ((Ratio/Tick))
system.l2.tags.avgOccs::switch_cpus.data     0.716776                       # Average percentage of cache occupancy ((Ratio/Tick))
system.l2.tags.avgOccs::switch_cpus_1.inst     0.002391                       # Average percentage of cache occupancy ((Ratio/Tick))
system.l2.tags.avgOccs::switch_cpus_1.data     0.223520                       # Average percentage of cache occupancy ((Ratio/Tick))
system.l2.tags.avgOccs::total                0.999931                       # Average percentage of cache occupancy ((Ratio/Tick))
system.l2.tags.occupanciesTaskId::1022             18                       # Occupied blocks per task id (Count)
system.l2.tags.occupanciesTaskId::1024           4078                       # Occupied blocks per task id (Count)
system.l2.tags.ageTaskId_1022::2                   18                       # Occupied blocks per task id, per block age (Count)
system.l2.tags.ageTaskId_1024::0                   83                       # Occupied blocks per task id, per block age (Count)
system.l2.tags.ageTaskId_1024::1                  629                       # Occupied blocks per task id, per block age (Count)
system.l2.tags.ageTaskId_1024::2                 1874                       # Occupied blocks per task id, per block age (Count)
system.l2.tags.ageTaskId_1024::3                 1492                       # Occupied blocks per task id, per block age (Count)
system.l2.tags.ratioOccsTaskId::1022         0.004395                       # Ratio of occupied blocks and all blocks, per task id (Ratio)
system.l2.tags.ratioOccsTaskId::1024         0.995605                       # Ratio of occupied blocks and all blocks, per task id (Ratio)
system.l2.tags.tagAccesses                      67557                       # Number of tag accesses (Count)
system.l2.tags.dataAccesses                     67557                       # Number of data accesses (Count)
system.l2.tags.power_state.pwrStateResidencyTicks::UNDEFINED   2477118000                       # Cumulative time (in ticks) in various power states (Tick)
system.mem_ctrls.avgPriority_writebacks::samples       438.00                       # Average QoS priority value for accepted requests (Count)
system.mem_ctrls.avgPriority_l2.prefetcher::samples        20.00                       # Average QoS priority value for accepted requests (Count)
system.mem_ctrls.avgPriority_switch_cpus_1.inst::samples        11.00                       # Average QoS priority value for accepted requests (Count)
system.mem_ctrls.avgPriority_switch_cpus_1.data::samples      1835.00                       # Average QoS priority value for accepted requests (Count)
system.mem_ctrls.priorityMinLatency      0.000000018750                       # per QoS priority minimum request to response latency (Second)
system.mem_ctrls.priorityMaxLatency      0.000098341250                       # per QoS priority maximum request to response latency (Second)
system.mem_ctrls.numReadWriteTurnArounds           24                       # Number of turnarounds from READ to WRITE (Count)
system.mem_ctrls.numWriteReadTurnArounds           24                       # Number of turnarounds from WRITE to READ (Count)
system.mem_ctrls.numStayReadState                4172                       # Number of times bus staying in READ state (Count)
system.mem_ctrls.numStayWriteState                385                       # Number of times bus staying in WRITE state (Count)
system.mem_ctrls.readReqs                        1870                       # Number of read requests accepted (Count)
system.mem_ctrls.writeReqs                        438                       # Number of write requests accepted (Count)
system.mem_ctrls.readBursts                      1870                       # Number of controller read bursts, including those serviced by the write queue (Count)
system.mem_ctrls.writeBursts                      438                       # Number of controller write bursts, including those merged in the write queue (Count)
system.mem_ctrls.servicedByWrQ                      4                       # Number of controller read bursts serviced by the write queue (Count)
system.mem_ctrls.mergedWrBursts                     0                       # Number of controller write bursts merged with an existing one (Count)
system.mem_ctrls.neitherReadNorWriteReqs            0                       # Number of requests that are neither read nor write (Count)
system.mem_ctrls.avgRdQLen                       1.11                       # Average read queue length when enqueuing ((Count/Tick))
system.mem_ctrls.avgWrQLen                      24.04                       # Average write queue length when enqueuing ((Count/Tick))
system.mem_ctrls.numRdRetry                         0                       # Number of times read queue was full causing retry (Count)
system.mem_ctrls.numWrRetry                         0                       # Number of times write queue was full causing retry (Count)
system.mem_ctrls.readPktSize::0                     0                       # Read request sizes (log2) (Count)
system.mem_ctrls.readPktSize::1                     0                       # Read request sizes (log2) (Count)
system.mem_ctrls.readPktSize::2                     0                       # Read request sizes (log2) (Count)
system.mem_ctrls.readPktSize::3                     0                       # Read request sizes (log2) (Count)
system.mem_ctrls.readPktSize::4                     0                       # Read request sizes (log2) (Count)
system.mem_ctrls.readPktSize::5                     0                       # Read request sizes (log2) (Count)
system.mem_ctrls.readPktSize::6                  1870                       # Read request sizes (log2) (Count)
[...]
system.switch_cpus_1.iew.dispSquashedInsts          196                       # Number of squashed instructions skipped by dispatch (Count)
system.switch_cpus_1.iew.dispLoadInsts         150108                       # Number of dispatched load instructions (Count)
system.switch_cpus_1.iew.dispStoreInsts         57462                       # Number of dispatched store instructions (Count)
system.switch_cpus_1.iew.dispNonSpecInsts            0                       # Number of dispatched non-speculative instructions (Count)
system.switch_cpus_1.iew.iqFullEvents            1965                       # Number of times the IQ has become full, causing a stall (Count)
system.switch_cpus_1.iew.lsqFullEvents            139                       # Number of times the LSQ has become full, causing a stall (Count)
system.switch_cpus_1.iew.memOrderViolationEvents            6                       # Number of memory order violations (Count)
system.switch_cpus_1.iew.predictedTakenIncorrect         1331                       # Number of branches that were predicted taken incorrectly (Count)
system.switch_cpus_1.iew.predictedNotTakenIncorrect         1397                       # Number of branches that were predicted not taken incorrectly (Count)
system.switch_cpus_1.iew.branchMispredicts         2728                       # Number of branch mispredicts detected at execute (Count)
system.switch_cpus_1.iew.instsToCommit        1074914                       # Cumulative count of insts sent to commit (Count)
system.switch_cpus_1.iew.writebackCount       1073919                       # Cumulative count of insts written-back (Count)
system.switch_cpus_1.iew.producerInst          835828                       # Number of instructions producing a value (Count)
system.switch_cpus_1.iew.consumerInst         1384885                       # Number of instructions consuming a value (Count)
system.switch_cpus_1.iew.wbRate              2.068837                       # Insts written-back per cycle ((Count/Cycle))
system.switch_cpus_1.iew.wbFanout            0.603536                       # Average fanout of values written-back ((Count/Count))
system.switch_cpus_1.lsq0.forwLoads              8061                       # Number of loads that had data forwarded from stores (Count)
system.switch_cpus_1.lsq0.squashedLoads         19149                       # Number of loads squashed (Count)
system.switch_cpus_1.lsq0.ignoredResponses           50                       # Number of memory responses ignored because the instruction is squashed (Count)
system.switch_cpus_1.lsq0.memOrderViolation            6                       # Number of memory ordering violations (Count)
system.switch_cpus_1.lsq0.squashedStores        13539                       # Number of stores squashed (Count)
system.switch_cpus_1.lsq0.rescheduledLoads            0                       # Number of loads that were rescheduled (Count)
system.switch_cpus_1.lsq0.blockedByCache            0                       # Number of times an access to memory failed due to the cache being blocked (Count)
system.switch_cpus_1.lsq0.loadToUse::samples       130949                       # Distribution of cycle latency between the first time a load is issued and its completion (Unspecified)
system.switch_cpus_1.lsq0.loadToUse::mean    12.283897                       # Distribution of cycle latency between the first time a load is issued and its completion (Unspecified)
system.switch_cpus_1.lsq0.loadToUse::stdev    34.897861                       # Distribution of cycle latency between the first time a load is issued and its completion (Unspecified)
system.switch_cpus_1.lsq0.loadToUse::0-9       120072     91.69%     91.69% # Distribution of cycle latency between the first time a load is issued and its completion (Unspecified)
system.switch_cpus_1.lsq0.loadToUse::10-19         2521      1.93%     93.62% # Distribution of cycle latency between the first time a load is issued and its completion (Unspecified)
system.switch_cpus_1.lsq0.loadToUse::20-29          143      0.11%     93.73% # Distribution of cycle latency between the first time a load is issued and its completion (Unspecified)
system.switch_cpus_1.lsq0.loadToUse::40-49            1      0.00%     93.73% # Distribution of cycle latency between the first time a load is issued and its completion (Unspecified)
system.switch_cpus_1.lsq0.loadToUse::50-59            9      0.01%     93.74% # Distribution of cycle latency between the first time a load is issued and its completion (Unspecified)
system.switch_cpus_1.lsq0.loadToUse::60-69           62      0.05%     93.78% # Distribution of cycle latency between the first time a load is issued and its completion (Unspecified)
system.switch_cpus_1.lsq0.loadToUse::70-79           11      0.01%     93.79% # Distribution of cycle latency between the first time a load is issued and its completion (Unspecified)
system.switch_cpus_1.lsq0.loadToUse::80-89          430      0.33%     94.12% # Distribution of cycle latency between the first time a load is issued and its completion (Unspecified)
system.switch_cpus_1.lsq0.loadToUse::90-99          939      0.72%     94.84% # Distribution of cycle latency between the first time a load is issued and its completion (Unspecified)
system.switch_cpus_1.lsq0.loadToUse::100-109         1402      1.07%     95.91% # Distribution of cycle latency between the first time a load is issued and its completion (Unspecified)
system.switch_cpus_1.lsq0.loadToUse::110-119         2629      2.01%     97.92% # Distribution of cycle latency between the first time a load is issued and its completion (Unspecified)
system.switch_cpus_1.lsq0.loadToUse::120-129          141      0.11%     98.02% # Distribution of cycle latency between the first time a load is issued and its completion (Unspecified)
system.switch_cpus_1.lsq0.loadToUse::130-139          417      0.32%     98.34% # Distribution of cycle latency between the first time a load is issued and its completion (Unspecified)
system.switch_cpus_1.lsq0.loadToUse::140-149          733      0.56%     98.90% # Distribution of cycle latency between the first time a load is issued and its completion (Unspecified)
system.switch_cpus_1.lsq0.loadToUse::150-159           92      0.07%     98.97% # Distribution of cycle latency between the first time a load is issued and its completion (Unspecified)
system.switch_cpus_1.lsq0.loadToUse::160-169          984      0.75%     99.72% # Distribution of cycle latency between the first time a load is issued and its completion (Unspecified)
system.switch_cpus_1.lsq0.loadToUse::170-179           76      0.06%     99.78% # Distribution of cycle latency between the first time a load is issued and its completion (Unspecified)
system.switch_cpus_1.lsq0.loadToUse::180-189           22      0.02%     99.80% # Distribution of cycle latency between the first time a load is issued and its completion (Unspecified)
system.switch_cpus_1.lsq0.loadToUse::190-199            5      0.00%     99.80% # Distribution of cycle latency between the first time a load is issued and its completion (Unspecified)
system.switch_cpus_1.lsq0.loadToUse::200-209            3      0.00%     99.80% # Distribution of cycle latency between the first time a load is issued and its completion (Unspecified)
system.switch_cpus_1.lsq0.loadToUse::210-219            6      0.00%     99.81% # Distribution of cycle latency between the first time a load is issued and its completion (Unspecified)
system.switch_cpus_1.lsq0.loadToUse::220-229           10      0.01%     99.82% # Distribution of cycle latency between the first time a load is issued and its completion (Unspecified)
system.switch_cpus_1.lsq0.loadToUse::230-239            6      0.00%     99.82% # Distribution of cycle latency between the first time a load is issued and its completion (Unspecified)
system.switch_cpus_1.lsq0.loadToUse::240-249            9      0.01%     99.83% # Distribution of cycle latency between the first time a load is issued and its completion (Unspecified)
system.switch_cpus_1.lsq0.loadToUse::250-259            7      0.01%     99.83% # Distribution of cycle latency between the first time a load is issued and its completion (Unspecified)
system.switch_cpus_1.lsq0.loadToUse::260-269           13      0.01%     99.84% # Distribution of cycle latency between the first time a load is issued and its completion (Unspecified)
system.switch_cpus_1.lsq0.loadToUse::270-279            9      0.01%     99.85% # Distribution of cycle latency between the first time a load is issued and its completion (Unspecified)
system.switch_cpus_1.lsq0.loadToUse::290-299            5      0.00%     99.85% # Distribution of cycle latency between the first time a load is issued and its completion (Unspecified)
system.switch_cpus_1.lsq0.loadToUse::overflows          192      0.15%    100.00% # Distribution of cycle latency between the first time a load is issued and its completion (Unspecified)
system.switch_cpus_1.lsq0.loadToUse::min_value            2                       # Distribution of cycle latency between the first time a load is issued and its completion (Unspecified)
system.switch_cpus_1.lsq0.loadToUse::max_value          683                       # Distribution of cycle latency between the first time a load is issued and its completion (Unspecified)
system.switch_cpus_1.lsq0.loadToUse::total       130949                       # Distribution of cycle latency between the first time a load is issued and its completion (Unspecified)
system.switch_cpus_1.mmu.dtb.rdAccesses        145417                       # TLB accesses on read requests (Count)
system.switch_cpus_1.mmu.dtb.wrAccesses         55411                       # TLB accesses on write requests (Count)
system.switch_cpus_1.mmu.dtb.rdMisses             495                       # TLB misses on read requests (Count)
system.switch_cpus_1.mmu.dtb.wrMisses               9                       # TLB misses on write requests (Count)
system.switch_cpus_1.mmu.dtb.walker.power_state.pwrStateResidencyTicks::UNDEFINED   2477118000                       # Cumulative time (in ticks) in various power states (Tick)
system.switch_cpus_1.mmu.itb.rdAccesses             0                       # TLB accesses on read requests (Count)
system.switch_cpus_1.mmu.itb.wrAccesses         84928                       # TLB accesses on write requests (Count)
system.switch_cpus_1.mmu.itb.rdMisses               0                       # TLB misses on read requests (Count)
system.switch_cpus_1.mmu.itb.wrMisses               6                       # TLB misses on write requests (Count)
system.switch_cpus_1.mmu.itb.walker.power_state.pwrStateResidencyTicks::UNDEFINED   2477118000                       # Cumulative time (in ticks) in various power states (Tick)
system.switch_cpus_1.power_state.pwrStateResidencyTicks::OFF   2477118000                       # Cumulative time (in ticks) in various power states (Tick)
system.switch_cpus_1.rename.squashCycles         2579                       # Number of cycles rename is squashing (Cycle)
system.switch_cpus_1.rename.idleCycles         148797                       # Number of cycles rename is idle (Cycle)
system.switch_cpus_1.rename.blockCycles        186820                       # Number of cycles rename is blocking (Cycle)
system.switch_cpus_1.rename.serializeStallCycles            0                       # count of cycles rename stalled for serializing inst (Cycle)
system.switch_cpus_1.rename.runCycles          163193                       # Number of cycles rename is running (Cycle)
system.switch_cpus_1.rename.unblockCycles        17699                       # Number of cycles rename is unblocking (Cycle)
system.switch_cpus_1.rename.renamedInsts      1138232                       # Number of instructions processed by rename (Count)
system.switch_cpus_1.rename.ROBFullEvents          874                       # Number of times rename has blocked due to ROB full (Count)
system.switch_cpus_1.rename.IQFullEvents        13863                       # Number of times rename has blocked due to IQ full (Count)
system.switch_cpus_1.rename.LQFullEvents           46                       # Number of times rename has blocked due to LQ full (Count)
system.switch_cpus_1.rename.SQFullEvents          209                       # Number of times rename has blocked due to SQ full (Count)
system.switch_cpus_1.rename.renamedOperands      2289001                       # Number of destination operands rename has renamed (Count)
system.switch_cpus_1.rename.lookups           4089845                       # Number of register rename lookups that rename has made (Count)
system.switch_cpus_1.rename.intLookups        1487046                       # Number of integer rename lookups (Count)
system.switch_cpus_1.rename.fpLookups           36666                       # Number of floating rename lookups (Count)
system.switch_cpus_1.rename.committedMaps      2004431                       # Number of HB maps that are committed (Count)
system.switch_cpus_1.rename.undoneMaps         284253                       # Number of HB maps that are undone due to squashing (Count)
system.switch_cpus_1.rename.serializing             0                       # count of serializing insts renamed (Count)
system.switch_cpus_1.rename.tempSerializing            0                       # count of temporary serializing insts renamed (Count)
system.switch_cpus_1.rename.skidInsts           47216                       # count of insts added to the skid buffer (Count)
system.switch_cpus_1.rob.reads                1554854                       # The number of ROB reads (Count)
system.switch_cpus_1.rob.writes               2264371                       # The number of ROB writes (Count)
system.switch_cpus_1.thread_0.numInsts         535419                       # Number of Instructions committed (Count)
system.switch_cpus_1.thread_0.numOps           980671                       # Number of Ops committed (Count)
system.switch_cpus_1.thread_0.numMemRefs            0                       # Number of Memory References (Count)
system.tol2bus.transDist::ReadResp               3795                       # Transaction distribution (Count)
system.tol2bus.transDist::WritebackDirty          832                       # Transaction distribution (Count)
system.tol2bus.transDist::WritebackClean           10                       # Transaction distribution (Count)
system.tol2bus.transDist::CleanEvict             5146                       # Transaction distribution (Count)
system.tol2bus.transDist::HardPFReq                20                       # Transaction distribution (Count)
system.tol2bus.transDist::ReadExReq               310                       # Transaction distribution (Count)
system.tol2bus.transDist::ReadExResp              310                       # Transaction distribution (Count)
system.tol2bus.transDist::ReadCleanReq             11                       # Transaction distribution (Count)
system.tol2bus.transDist::ReadSharedReq          3784                       # Transaction distribution (Count)
system.tol2bus.pktCount_system.cpu.icache.mem_side_port::system.l2.cpu_side_port           32                       # Packet count per connected requestor and responder (Count)
system.tol2bus.pktCount_system.cpu.dcache.mem_side_port::system.l2.cpu_side_port        12282                       # Packet count per connected requestor and responder (Count)
system.tol2bus.pktCount::total                  12314                       # Packet count per connected requestor and responder (Count)
system.tol2bus.pktSize_system.cpu.icache.mem_side_port::system.l2.cpu_side_port         1344                       # Cumulative packet size per connected requestor and responder (Byte)
system.tol2bus.pktSize_system.cpu.dcache.mem_side_port::system.l2.cpu_side_port       287232                       # Cumulative packet size per connected requestor and responder (Byte)
system.tol2bus.pktSize::total                  288576                       # Cumulative packet size per connected requestor and responder (Byte)
system.tol2bus.snoops                            1904                       # Total snoops (Count)
system.tol2bus.snoopTraffic                     28032                       # Total snoop traffic (Byte)
system.tol2bus.snoopFanout::samples              6009                       # Request fanout histogram (Count)
system.tol2bus.snoopFanout::mean             0.009486                       # Request fanout histogram (Count)
system.tol2bus.snoopFanout::stdev            0.096940                       # Request fanout histogram (Count)
system.tol2bus.snoopFanout::underflows              0      0.00%      0.00% # Request fanout histogram (Count)
system.tol2bus.snoopFanout::0                    5952     99.05%     99.05% # Request fanout histogram (Count)
system.tol2bus.snoopFanout::1                      57      0.95%    100.00% # Request fanout histogram (Count)
system.tol2bus.snoopFanout::2                       0      0.00%    100.00% # Request fanout histogram (Count)
system.tol2bus.snoopFanout::3                       0      0.00%    100.00% # Request fanout histogram (Count)
system.tol2bus.snoopFanout::4                       0      0.00%    100.00% # Request fanout histogram (Count)
system.tol2bus.snoopFanout::overflows               0      0.00%    100.00% # Request fanout histogram (Count)
system.tol2bus.snoopFanout::min_value               0                       # Request fanout histogram (Count)
system.tol2bus.snoopFanout::max_value               1                       # Request fanout histogram (Count)
system.tol2bus.snoopFanout::total                6009                       # Request fanout histogram (Count)
system.tol2bus.power_state.pwrStateResidencyTicks::UNDEFINED   2477118000                       # Cumulative time (in ticks) in various power states (Tick)
system.tol2bus.reqLayer0.occupancy            4508500                       # Layer occupancy (ticks) (Tick)
system.tol2bus.reqLayer0.utilization              0.0                       # Layer utilization (Ratio)
system.tol2bus.respLayer0.occupancy             16500                       # Layer occupancy (ticks) (Tick)
system.tol2bus.respLayer0.utilization             0.0                       # Layer utilization (Ratio)
system.tol2bus.respLayer1.occupancy           6141000                       # Layer occupancy (ticks) (Tick)
system.tol2bus.respLayer1.utilization             0.0                       # Layer utilization (Ratio)
system.tol2bus.snoop_filter.totRequests          8209                       # Total number of requests made to the snoop filter. (Count)
system.tol2bus.snoop_filter.hitSingleRequests         4104                       # Number of requests hitting in the snoop filter with a single holder of the requested data. (Count)
system.tol2bus.snoop_filter.hitMultiRequests            0                       # Number of requests hitting in the snoop filter with multiple (>1) holders of the requested data. (Count)
system.tol2bus.snoop_filter.totSnoops              57                       # Total number of snoops made to the snoop filter. (Count)
system.tol2bus.snoop_filter.hitSingleSnoops           57                       # Number of snoops hitting in the snoop filter with a single holder of the requested data. (Count)
system.tol2bus.snoop_filter.hitMultiSnoops            0                       # Number of snoops hitting in the snoop filter with multiple (>1) holders of the requested data. (Count)
system.voltage_domain.voltage                       1                       # Voltage in Volts (Volt)
system.workload.inst.arm                            0                       # number of arm instructions executed (Count)
system.workload.inst.quiesce                        0                       # number of quiesce instructions executed (Count)

---------- End Simulation Statistics   ----------
